Metadata-Version: 2.4
Name: Oasys.REPORTER
Version: 22.0.0
Summary: Python API for Oasys REPORTER
Author: Miles Thornton
Maintainer-email: DYNA support <dyna.support@arup.com>
Project-URL: Documentation, https://www.oasys-software.com/dyna/sphinx/22.0/REPORTER/
Project-URL: Homepage, https://www.oasys-software.com/dyna/software/reporter/
Project-URL: Linkedin, https://www.linkedin.com/company/oasys-ltd-software/
Project-URL: YouTube, https://www.youtube.com/c/OasysLtd
Keywords: Oasys,REPORTER
Requires-Python: >=3.8
Description-Content-Type: text/x-rst
License-File: LICENSE
Requires-Dist: Oasys.gRPC~=22.0.0
Dynamic: license-file

The Oasys.REPORTER package allows Python scripts to control the Oasys LS-DYNA Environment
software `REPORTER <https://www.oasys-software.com/dyna/software/reporter/>`_.

Basic information
-----------------

The module uses gRPC to communicate with the REPORTER executable using the `Oasys.gRPC <https://pypi.org/project/Oasys.gRPC/>`_ module.


More information
----------------

* To see the Oasys LS-DYNA Environment Python API manual: 
  https://help.oasys-software.com/articles/py_api-22-0

* To see an introduction to this module: 
  https://help.oasys-software.com/articles/py_api-22-0/reporter

* To access all classes and functions of this module:
  https://www.oasys-software.com/dyna/sphinx/22.0/REPORTER

* For more details on the Oasys LS-DYNA Environment software see:

  * Website: `https://www.oasys-software.com/dyna/software/ <https://www.oasys-software.com/dyna/software/>`_
  * Linkedin: `https://www.linkedin.com/company/oasys-ltd-software/ <https://www.linkedin.com/company/oasys-ltd-software/>`_
  * YouTube: `https://www.youtube.com/c/OasysLtd <https://www.youtube.com/c/OasysLtd>`_
  * Email: `dyna.support@arup.com <mailto:dyna.support@arup.com>`_
